(3S)-3-Amino-4-[[(1S)-1-benzyl-2-methoxy-2-oxoethyl]amino]-4-oxobutanoic acid
 OpenBabel07100913143D

 39 39  0  0  0  0  0  0  0  0999 V2000
    2.6049    2.0903    0.0246 C   0  0  0  0  0
    1.7634    3.0252    0.8543 C   0  0  0  0  0
    0.3696    3.2705    0.2574 C   0  0  0  0  0
   -0.0716    4.6484    0.5849 N   0  0  0  0  0
   -0.6118    2.2081    0.7781 C   0  0  0  0  0
   -1.3124    2.3791    1.7694 O   0  0  0  0  0
   -0.7586    1.0280    0.0251 N   0  0  0  0  0
   -1.5759   -0.1090    0.5038 C   0  0  0  0  0
   -2.0506   -0.9764   -0.6736 C   0  0  0  0  0
   -0.9580   -1.6316   -1.4560 C   0  0  0  0  0
   -0.5218   -2.9112   -1.1065 C   0  0  0  0  0
   -0.3993   -0.9954   -2.5662 C   0  0  0  0  0
    0.5893   -1.6298   -3.3105 C   0  0  0  0  0
    1.0168   -2.9060   -2.9604 C   0  0  0  0  0
    0.4608   -3.5452   -1.8573 C   0  0  0  0  0
   -0.8254   -0.9429    1.5468 C   0  0  0  0  0
   -1.6609   -1.7413    2.2753 O   0  0  0  0  0
    0.3644   -0.9467    1.7899 O   0  0  0  0  0
    2.3208    3.9831    0.9406 H   0  0  0  0  0
    1.6875    2.6317    1.8898 H   0  0  0  0  0
    0.4224    3.2322   -0.8610 H   0  0  0  0  0
   -0.1387    4.7648    1.5748 H   0  0  0  0  0
   -0.9650    4.8135    0.1720 H   0  0  0  0  0
   -0.0616    0.8158   -0.6598 H   0  0  0  0  0
   -2.6687   -0.3554   -1.3545 H   0  0  0  0  0
   -2.7348   -1.7551   -0.2775 H   0  0  0  0  0
   -0.9574   -3.4167   -0.2364 H   0  0  0  0  0
   -0.7441    0.0028   -2.8613 H   0  0  0  0  0
    1.0323   -1.1202   -4.1727 H   0  0  0  0  0
    1.7877   -3.4081   -3.5536 H   0  0  0  0  0
    0.7961   -4.5493   -1.5778 H   0  0  0  0  0
   -2.4847    0.3216    1.0018 H   0  0  0  0  0
   -1.1158   -2.5445    3.2997 C   0  0  0  0  0
   -2.0069   -3.0171    3.7204 H   0  0  0  0  0
   -0.6030   -1.9477    4.0616 H   0  0  0  0  0
   -0.4332   -3.3004    2.8977 H   0  0  0  0  0
    3.7933    1.7627    0.5811 O   0  0  0  0  0
    2.3834    1.6038   -1.0719 O   0  0  0  0  0
    4.2675    1.1683    0.0076 H   0  0  0  0  0
  1  2  1  0  0  0
  1 37  1  0  0  0
  1 38  2  0  0  0
  2  3  1  0  0  0
  2 19  1  0  0  0
  2 20  1  0  0  0
  3  4  1  0  0  0
  3  5  1  0  0  0
  3 21  1  0  0  0
  4 22  1  0  0  0
  4 23  1  0  0  0
  5  6  2  0  0  0
  5  7  1  0  0  0
  7  8  1  0  0  0
  7 24  1  0  0  0
  8  9  1  0  0  0
  8 16  1  0  0  0
  8 32  1  0  0  0
  9 10  1  0  0  0
  9 25  1  0  0  0
  9 26  1  0  0  0
 10 11  2  0  0  0
 10 12  1  0  0  0
 15 11  1  0  0  0
 11 27  1  0  0  0
 12 13  2  0  0  0
 12 28  1  0  0  0
 13 14  1  0  0  0
 13 29  1  0  0  0
 14 15  2  0  0  0
 14 30  1  0  0  0
 15 31  1  0  0  0
 16 18  2  0  0  0
 16 17  1  0  0  0
 17 33  1  0  0  0
 33 34  1  0  0  0
 33 35  1  0  0  0
 33 36  1  0  0  0
 37 39  1  0  0  0
M  END
