(4-Acetamidophenyl) 2-hydroxybenzoate
 OpenBabel07100913143D

 33 34  0  0  0  0  0  0  0  0999 V2000
    1.2264    2.2874    0.1664 C   0  0  0  0  0
    1.2384    0.9048    0.0278 C   0  0  0  0  0
    0.0289    0.2174   -0.0998 C   0  0  0  0  0
   -1.1934    0.8960   -0.1117 C   0  0  0  0  0
   -1.2000    2.2758    0.0315 C   0  0  0  0  0
    0.0073    2.9758    0.1782 C   0  0  0  0  0
    0.0510   -1.1518   -0.3697 O   0  0  0  0  0
   -0.0590    4.3938    0.3967 N   0  0  0  0  0
    0.8208    5.3665   -0.1461 C   0  0  0  0  0
    1.8324    5.0331   -0.7435 O   0  0  0  0  0
    0.4384    6.8037    0.1108 C   0  0  0  0  0
    2.1809    2.8224    0.2482 H   0  0  0  0  0
    2.1923    0.3663    0.0097 H   0  0  0  0  0
   -2.1337    0.3503   -0.2456 H   0  0  0  0  0
   -2.1601    2.8064    0.0265 H   0  0  0  0  0
   -0.0684   -2.0347    0.6760 C   0  0  0  0  0
   -0.9500    4.7321    0.6890 H   0  0  0  0  0
   -0.4826    7.0685   -0.4253 H   0  0  0  0  0
    1.2261    7.4902   -0.2269 H   0  0  0  0  0
    0.2731    6.9918    1.1803 H   0  0  0  0  0
   -0.0481   -3.4469    0.2007 C   0  0  0  0  0
   -0.1402   -1.6390    1.8181 O   0  0  0  0  0
    1.1772   -4.1091    0.1255 C   0  0  0  0  0
   -1.2230   -4.1354   -0.1422 C   0  0  0  0  0
   -1.1638   -5.4815   -0.5369 C   0  0  0  0  0
    0.0649   -6.1237   -0.5931 C   0  0  0  0  0
    1.2331   -5.4412   -0.2650 C   0  0  0  0  0
    2.0992   -3.5723    0.3764 H   0  0  0  0  0
   -2.3979   -3.4422   -0.0801 O   0  0  0  0  0
   -2.0784   -6.0276   -0.7965 H   0  0  0  0  0
    0.1143   -7.1741   -0.8990 H   0  0  0  0  0
    2.1984   -5.9556   -0.3093 H   0  0  0  0  0
   -3.1044   -4.0472   -0.2709 H   0  0  0  0  0
  1  2  2  0  0  0
  6  1  1  0  0  0
  1 12  1  0  0  0
  2  3  1  0  0  0
  2 13  1  0  0  0
  3  4  2  0  0  0
  3  7  1  0  0  0
  4  5  1  0  0  0
  4 14  1  0  0  0
  5  6  2  0  0  0
  5 15  1  0  0  0
  6  8  1  0  0  0
  7 16  1  0  0  0
  8  9  1  0  0  0
  8 17  1  0  0  0
  9 10  2  0  0  0
  9 11  1  0  0  0
 11 18  1  0  0  0
 11 19  1  0  0  0
 11 20  1  0  0  0
 16 21  1  0  0  0
 16 22  2  0  0  0
 21 23  2  0  0  0
 21 24  1  0  0  0
 27 23  1  0  0  0
 23 28  1  0  0  0
 24 25  2  0  0  0
 24 29  1  0  0  0
 25 26  1  0  0  0
 25 30  1  0  0  0
 26 27  2  0  0  0
 26 31  1  0  0  0
 27 32  1  0  0  0
 29 33  1  0  0  0
M  END
