7-Chloro-1-methyl-5-phenyl-1,3-dihydro-2H-1,4-benzodiazepin-2-one
 OpenBabel07100913143D

 33 35  0  0  0  0  0  0  0  0999 V2000
    1.3543   -1.0065   -1.0027 C   0  0  0  0  0
    1.7044   -2.3497   -1.0602 C   0  0  0  0  0
    0.8319   -3.3327   -0.5969 C   0  0  0  0  0
   -0.3962   -2.9650   -0.0690 C   0  0  0  0  0
   -0.7665   -1.6130    0.0020 C   0  0  0  0  0
    0.1167   -0.6275   -0.4767 C   0  0  0  0  0
   -0.2324    0.8087   -0.4804 C   0  0  0  0  0
   -1.3837    1.2685   -0.8620 N   0  0  0  0  0
   -2.4729    0.4033   -1.2986 C   0  0  0  0  0
   -2.9814   -0.5134   -0.1948 C   0  0  0  0  0
   -2.0231   -1.2254    0.6132 N   0  0  0  0  0
    3.1973   -2.7955   -1.6987 Cl  0  0  0  0  0
    0.8006    1.7741   -0.0459 C   0  0  0  0  0
   -2.5394   -2.1098    1.6826 C   0  0  0  0  0
   -4.1632   -0.6315    0.0750 O   0  0  0  0  0
    1.4365    1.5926    1.1848 C   0  0  0  0  0
    1.1303    2.8708   -0.8444 C   0  0  0  0  0
    2.3981    2.5019    1.6091 C   0  0  0  0  0
    2.7311    3.5909    0.8095 C   0  0  0  0  0
    2.0975    3.7735   -0.4147 C   0  0  0  0  0
    2.0513   -0.2395   -1.3652 H   0  0  0  0  0
    1.1192   -4.3887   -0.6534 H   0  0  0  0  0
   -1.0732   -3.7506    0.2911 H   0  0  0  0  0
   -2.1771   -0.2021   -2.1806 H   0  0  0  0  0
   -3.2795    1.0861   -1.6321 H   0  0  0  0  0
   -1.7056   -2.4678    2.3006 H   0  0  0  0  0
   -3.0914   -2.9790    1.2951 H   0  0  0  0  0
   -3.2195   -1.5323    2.3234 H   0  0  0  0  0
    1.1745    0.7344    1.8137 H   0  0  0  0  0
    0.6224    3.0272   -1.8027 H   0  0  0  0  0
    2.8931    2.3601    2.5754 H   0  0  0  0  0
    3.4900    4.3049    1.1457 H   0  0  0  0  0
    2.3558    4.6330   -1.0421 H   0  0  0  0  0
  1  2  1  0  0  0
  6  1  2  0  0  0
  1 21  1  0  0  0
  2  3  2  0  0  0
  2 12  1  0  0  0
  3  4  1  0  0  0
  3 22  1  0  0  0
  4  5  2  0  0  0
  4 23  1  0  0  0
  5  6  1  0  0  0
 11  5  1  0  0  0
  6  7  1  0  0  0
  7  8  2  0  0  0
  7 13  1  0  0  0
  8  9  1  0  0  0
  9 10  1  0  0  0
  9 24  1  0  0  0
  9 25  1  0  0  0
 10 11  1  0  0  0
 10 15  2  0  0  0
 11 14  1  0  0  0
 13 16  2  0  0  0
 13 17  1  0  0  0
 14 26  1  0  0  0
 14 27  1  0  0  0
 14 28  1  0  0  0
 16 18  1  0  0  0
 16 29  1  0  0  0
 20 17  2  0  0  0
 17 30  1  0  0  0
 18 19  2  0  0  0
 18 31  1  0  0  0
 19 20  1  0  0  0
 19 32  1  0  0  0
 20 33  1  0  0  0
M  END
