N-(4-Hydroxyphenyl)acetamide
 OpenBabel07100913143D

 20 20  0  0  0  0  0  0  0  0999 V2000
    1.1143   -0.6790   -0.1474 C   0  0  0  0  0
    1.2337   -2.0600   -0.2016 C   0  0  0  0  0
    0.0893   -2.8604   -0.0936 C   0  0  0  0  0
   -1.1744   -2.2797    0.0686 C   0  0  0  0  0
   -1.2868   -0.8981    0.1221 C   0  0  0  0  0
   -0.1460   -0.0873    0.0148 C   0  0  0  0  0
    0.2882   -4.2141   -0.1560 O   0  0  0  0  0
   -0.3457    1.3314    0.0799 N   0  0  0  0  0
    0.6091    2.3706   -0.0015 C   0  0  0  0  0
    1.7993    2.1313   -0.1469 O   0  0  0  0  0
    0.0543    3.7726    0.1033 C   0  0  0  0  0
    2.0205   -0.0632   -0.2336 H   0  0  0  0  0
    2.2201   -2.5209   -0.3286 H   0  0  0  0  0
   -2.0730   -2.9015    0.1536 H   0  0  0  0  0
   -2.2835   -0.4571    0.2496 H   0  0  0  0  0
   -0.5581   -4.6350   -0.0718 H   0  0  0  0  0
   -1.2940    1.6152    0.1974 H   0  0  0  0  0
   -0.6600    3.9830   -0.7041 H   0  0  0  0  0
    0.8547    4.5218    0.0358 H   0  0  0  0  0
   -0.4620    3.9303    1.0598 H   0  0  0  0  0
  1  2  2  0  0  0
  6  1  1  0  0  0
  1 12  1  0  0  0
  2  3  1  0  0  0
  2 13  1  0  0  0
  3  4  2  0  0  0
  3  7  1  0  0  0
  4  5  1  0  0  0
  4 14  1  0  0  0
  5  6  2  0  0  0
  5 15  1  0  0  0
  6  8  1  0  0  0
  7 16  1  0  0  0
  8  9  1  0  0  0
  8 17  1  0  0  0
  9 10  2  0  0  0
  9 11  1  0  0  0
 11 18  1  0  0  0
 11 19  1  0  0  0
 11 20  1  0  0  0
M  END
